Version 4
SHEET 1 2220 680
WIRE -448 -112 -464 -112
WIRE -240 -112 -448 -112
WIRE -160 -112 -240 -112
WIRE -96 -112 -160 -112
WIRE 64 -112 -96 -112
WIRE 96 -112 64 -112
WIRE 224 -112 176 -112
WIRE 448 -112 224 -112
WIRE 560 -112 512 -112
WIRE 592 -112 560 -112
WIRE 704 -112 656 -112
WIRE 784 -112 704 -112
WIRE 880 -112 784 -112
WIRE 992 -112 880 -112
WIRE 1120 -112 992 -112
WIRE 1184 -112 1120 -112
WIRE 1232 -112 1184 -112
WIRE 1376 -112 1312 -112
WIRE 1440 -112 1376 -112
WIRE 1728 -112 1440 -112
WIRE -448 -96 -448 -112
WIRE -240 -80 -240 -112
WIRE -160 -80 -160 -112
WIRE 560 -80 560 -112
WIRE 704 -80 704 -112
WIRE 784 -80 784 -112
WIRE 880 -80 880 -112
WIRE 1120 -64 1120 -112
WIRE 1184 -64 1184 -112
WIRE 1376 -64 1376 -112
WIRE 1440 -64 1440 -112
WIRE 1728 -64 1728 -112
WIRE 64 -32 64 -112
WIRE 224 -32 224 -112
WIRE -448 0 -448 -16
WIRE -240 0 -240 -16
WIRE -160 0 -160 -16
WIRE -96 32 -96 -112
WIRE -16 32 -96 32
WIRE 320 32 304 32
WIRE 400 32 384 32
WIRE 560 32 560 0
WIRE 704 32 704 -16
WIRE 704 32 560 32
WIRE 784 32 784 0
WIRE 880 32 880 -16
WIRE 880 32 784 32
WIRE 704 48 704 32
WIRE 1120 48 1120 0
WIRE 1184 48 1184 0
WIRE 1376 48 1376 0
WIRE 1440 48 1440 0
WIRE 1728 48 1728 16
WIRE -16 128 -80 128
WIRE 784 128 784 32
WIRE 784 128 304 128
WIRE 784 160 784 128
WIRE -112 224 -128 224
WIRE -16 224 -32 224
WIRE 320 224 304 224
WIRE 416 224 400 224
WIRE 496 224 480 224
WIRE 784 272 784 240
WIRE -96 320 -112 320
WIRE -16 320 -32 320
WIRE 992 320 992 -112
WIRE 992 320 304 320
WIRE 144 400 144 384
FLAG -448 0 0
FLAG -112 320 0
FLAG -80 128 0
FLAG -128 224 0
FLAG 144 400 0
FLAG 400 32 0
FLAG 496 224 0
FLAG 704 48 0
FLAG 784 272 0
FLAG 1728 48 0
FLAG -240 0 0
FLAG 1184 48 0
FLAG 1376 48 0
FLAG -464 -112 IN
FLAG 1728 -112 OUT
FLAG 1120 48 0
FLAG 1440 48 0
FLAG -160 0 0
SYMBOL PowerProducts\\LT8362 144 176 R0
SYMATTR InstName U1
SYMBOL ind 80 -96 R270
WINDOW 0 32 56 VTop 2
WINDOW 3 70 56 VBottom 2
SYMATTR InstName L1
SYMATTR Value flux={4.7u*5.5A}*tanh(x/{5.5A})
SYMATTR SpiceLine Rser=28m
SYMBOL voltage -448 -112 R0
WINDOW 123 0 0 Left 0
WINDOW 39 24 114 Left 2
SYMATTR SpiceLine Rser=100m
SYMATTR InstName V1
SYMATTR Value 10
SYMBOL cap -32 304 R90
WINDOW 0 0 32 VBottom 2
WINDOW 3 32 32 VTop 2
SYMATTR InstName C1
SYMATTR Value 10n
SYMBOL res -16 208 R90
WINDOW 0 0 56 VBottom 2
WINDOW 3 32 56 VTop 2
SYMATTR InstName R1
SYMATTR Value 20k
SYMBOL cap 512 -128 R90
WINDOW 0 0 32 VBottom 2
WINDOW 3 32 32 VTop 2
SYMATTR InstName C2
SYMATTR Value 1.5µ
SYMATTR SpiceLine Rser=6m Lser=0.3n
SYMBOL ind 544 -96 R0
SYMATTR InstName L2
SYMATTR Value flux={4.7u*5.5A}*tanh(x/{5.5A})
SYMATTR SpiceLine Rser=28m
SYMBOL cap 384 16 R90
WINDOW 0 0 32 VBottom 2
WINDOW 3 32 32 VTop 2
SYMATTR InstName C3
SYMATTR Value 1µ
SYMBOL res 416 208 R90
WINDOW 0 0 56 VBottom 2
WINDOW 3 32 56 VTop 2
SYMATTR InstName R2
SYMATTR Value 36.5k
SYMBOL cap 480 208 R90
WINDOW 0 0 32 VBottom 2
WINDOW 3 32 32 VTop 2
SYMATTR InstName C4
SYMATTR Value 680p
SYMBOL res 768 -96 R0
SYMATTR InstName R3
SYMATTR Value 1Meg
SYMBOL cap 864 -80 R0
SYMATTR InstName C5
SYMATTR Value 4.7p
SYMATTR SpiceLine Rser=2m Lser=0.2n
SYMBOL cap 688 -80 R0
SYMATTR InstName C6
SYMATTR Value 6.25µ
SYMATTR SpiceLine Rser=2.5m Lser=0.3n
SYMBOL res 768 144 R0
SYMATTR InstName R4
SYMATTR Value 154k
SYMBOL current 1728 -64 R0
WINDOW 123 0 0 Left 0
WINDOW 39 24 18 Left 2
SYMATTR SpiceLine load
SYMATTR InstName I1
SYMATTR Value {Iwy}
SYMBOL cap -256 -80 R0
SYMATTR InstName C7
SYMATTR Value 6.88µ
SYMATTR SpiceLine Rser=2.5m Lser=0.3n
SYMBOL cap 1168 -64 R0
SYMATTR InstName C8
SYMATTR Value 6.25µ
SYMATTR SpiceLine Rser=2.5m Lser=0.3n
SYMBOL cap 1360 -64 R0
SYMATTR InstName C9
SYMATTR Value 6.25µ
SYMATTR SpiceLine Rser=2.5m Lser=0.3n
SYMBOL ind 1216 -96 R270
WINDOW 0 32 56 VTop 2
WINDOW 3 66 64 VBottom 2
SYMATTR InstName L3
SYMATTR Value flux={3.3u*13.5A}*tanh(x/{13.5A})
SYMATTR SpiceLine Rser=0.0075
SYMBOL cap 1104 -64 R0
SYMATTR InstName C10
SYMATTR Value 6.25µ
SYMATTR SpiceLine Rser=2.5m Lser=0.3n
SYMBOL cap 1424 -64 R0
SYMATTR InstName C11
SYMATTR Value 6.25µ
SYMATTR SpiceLine Rser=2.5m Lser=0.3n
SYMBOL diode 592 -96 R270
WINDOW 0 32 32 VTop 2
WINDOW 3 0 32 VBottom 2
SYMATTR InstName D1
SYMATTR Value DI_DFLS260
SYMBOL cap -176 -80 R0
SYMATTR InstName C12
SYMATTR Value 6.88µ
SYMATTR SpiceLine Rser=2.5m Lser=0.3n
TEXT -480 424 Left 2 !.tran 5m startup
TEXT 1096 224 Left 2 !.meas Pin AVG -V(IN)*I(V1) FROM 4m
TEXT 1096 248 Left 2 !.meas Pout AVG V(OUT)*I(I1) FROM 4m
TEXT 1096 272 Left 2 !.meas Eff param (Pout/Pin)*100 FROM 4m
TEXT 1096 296 Left 2 !.meas Vout_avg AVG V(OUT) FROM 4m
TEXT 1096 320 Left 2 !.meas Vout_pp PP V(OUT)*1000 FROM 4m
TEXT 1096 344 Left 2 !.meas Vin_pp PP V(IN)*1000 FROM 4m
TEXT 1080 136 Left 2 !.MODEL DI_DFLS260 D  ( IS=721.4n RS=80.00m BV=60.00 IBV=10.00\n+ CJO=320.8p M=450.7m N=1.029 TT=10.00n EG=480.0m VJ=292.4m )
TEXT -200 -56 Left 2 ;10u
TEXT 656 -48 Left 2 ;10u
TEXT 1144 24 Left 2 ;10u
TEXT 1400 24 Left 2 ;10u
TEXT 912 8 Left 2 ;4.7p
TEXT 1712 104 Left 2 !.step param Iwy 0 0.1 0.01
