Version 4
SHEET 1 2680 1028
WIRE -48 -112 -176 -112
WIRE 48 -112 -48 -112
WIRE 256 -112 48 -112
WIRE 448 -112 256 -112
WIRE -176 -96 -176 -112
WIRE -48 -96 -48 -112
WIRE 256 -96 256 -112
WIRE 48 -32 48 -112
WIRE 112 -32 48 -32
WIRE 448 -32 448 -112
WIRE 448 -32 400 -32
WIRE 48 -16 48 -32
WIRE 448 -16 448 -32
WIRE -176 0 -176 -16
WIRE -48 0 -48 -32
WIRE 48 64 48 48
WIRE 112 64 48 64
WIRE 448 64 448 48
WIRE 448 64 400 64
WIRE 48 80 48 64
WIRE 448 80 448 64
WIRE 32 160 16 160
WIRE 112 160 96 160
WIRE 608 160 400 160
WIRE 112 256 96 256
WIRE 432 256 400 256
WIRE 432 272 432 256
WIRE 112 352 96 352
WIRE 432 352 432 336
WIRE 432 352 400 352
WIRE 496 352 432 352
WIRE 608 352 608 160
WIRE 608 352 576 352
WIRE 720 352 608 352
WIRE 816 352 720 352
WIRE 864 352 816 352
WIRE 912 352 864 352
WIRE 1040 352 912 352
WIRE 608 368 608 352
WIRE 720 368 720 352
WIRE 816 368 816 352
WIRE 864 368 864 352
WIRE 912 368 912 352
WIRE 1040 368 1040 352
WIRE 16 448 0 448
WIRE 112 448 80 448
WIRE 608 448 400 448
WIRE 720 448 720 432
WIRE 720 448 608 448
WIRE 608 464 608 448
WIRE 816 464 816 432
WIRE 864 464 864 432
WIRE 912 464 912 432
WIRE 1040 464 1040 448
WIRE 208 528 208 512
WIRE 304 544 304 512
WIRE 608 560 608 544
WIRE 208 624 208 608
FLAG 16 160 0
FLAG -176 0 0
FLAG 1040 464 0
FLAG 1040 352 OUT
FLAG -176 -112 IN
FLAG -48 0 0
FLAG 864 464 0
FLAG 304 544 0
FLAG 0 448 0
FLAG 448 80 0
FLAG 48 80 0
FLAG 96 256 0
FLAG 96 352 0
FLAG 816 464 0
FLAG 208 624 0
FLAG 608 560 0
FLAG 912 464 0
SYMBOL cap 96 144 R90
WINDOW 0 0 32 VBottom 2
WINDOW 3 32 32 VTop 2
SYMATTR InstName C1
SYMATTR Value 1µ
SYMATTR SpiceLine Rser=5m Lser=0.2n
SYMBOL voltage -176 -112 R0
WINDOW 123 24 126 Left 2
WINDOW 39 24 124 Left 2
SYMATTR SpiceLine Rser=100m
SYMATTR Value 10
SYMATTR InstName V1
SYMBOL ind 480 368 R270
WINDOW 0 32 56 VTop 2
WINDOW 3 5 56 VBottom 2
SYMATTR InstName L1
SYMATTR Value flux={3.3u*13.5A}*tanh(x/{13.5A})
SYMATTR SpiceLine Rser=0.0075
SYMBOL cap 416 272 R0
SYMATTR InstName C3
SYMATTR Value .1µ
SYMATTR SpiceLine Rser=30m Lser=0.2n
SYMBOL res 592 352 R0
SYMATTR InstName R2
SYMATTR Value 1Meg
SYMBOL res 592 448 R0
SYMATTR InstName R3
SYMATTR Value 243k
SYMBOL cap 704 368 R0
SYMATTR InstName C5
SYMATTR Value 4.7p
SYMATTR SpiceLine Rser=100m Lser=0.2n
SYMBOL cap -64 -96 R0
SYMATTR InstName C6
SYMATTR Value 6.88µ
SYMATTR SpiceLine Rser=2.5m Lser=0.3n
SYMBOL cap 32 -16 R0
SYMATTR InstName C7
SYMATTR Value 1.03µ
SYMATTR SpiceLine Rser=6m Lser=0.6n
SYMBOL cap 464 -16 M0
WINDOW 0 -20 11 Left 2
WINDOW 3 -17 57 Left 2
SYMATTR InstName C8
SYMATTR Value 1.03µ
SYMATTR SpiceLine Rser=6m Lser=0.6n
SYMBOL cap 80 432 R90
WINDOW 0 0 32 VBottom 2
WINDOW 3 32 32 VTop 2
SYMATTR InstName C2
SYMATTR Value 10n
SYMATTR SpiceLine Rser=250m Lser=0.3n
SYMBOL LT8640 256 208 R0
SYMATTR InstName U1
SYMBOL current 1040 368 R0
WINDOW 123 0 0 Left 0
WINDOW 39 24 108 Left 2
SYMATTR SpiceLine load
SYMATTR InstName I1
SYMATTR Value {Iwy}
SYMBOL res 192 512 R0
SYMATTR InstName R1
SYMATTR Value 41.2k
SYMBOL polcap 800 368 R0
SYMATTR InstName C10
SYMATTR Value 43.6µ
SYMATTR SpiceLine Rser=350m Lser=3n
SYMBOL polcap 848 368 R0
SYMATTR InstName C4
SYMATTR Value 43.6µ
SYMATTR SpiceLine Rser=350m Lser=3n
SYMBOL cap 896 368 R0
SYMATTR InstName C9
SYMATTR Value 1.27µ
SYMATTR SpiceLine Rser=5m Lser=0.6n
TEXT 824 520 Left 2 !.tran 8m startup
TEXT 1160 -104 Left 2 !.meas Pin AVG -V(IN)*I(V1) FROM 7m
TEXT 1160 -72 Left 2 !.meas Pout AVG V(OUT)*I(I1) FROM 7m
TEXT 1160 -40 Left 2 !.meas Eff param (Pout/Pin)*100 FROM 7m
TEXT 1160 -8 Left 2 !.meas Vout_avg AVG V(OUT) FROM 7m
TEXT 1160 24 Left 2 !.meas Vout_pp PP V(OUT)*1000 FROM 7m
TEXT 1160 56 Left 2 !.meas Vin_pp PP V(IN)*1000 FROM 7m
TEXT 1112 456 Left 2 !.step param Iwy 0 5 0.5
TEXT -32 -72 Left 2 ;10u
TEXT 784 424 Left 2 ;47u
TEXT 936 400 Left 2 ;1.5u
TEXT 480 24 Left 2 ;1.5u
TEXT 0 32 Left 2 ;1.5u
