Version 4
SHEET 1 1836 680
WIRE 224 64 16 64
WIRE 352 64 224 64
WIRE 384 64 352 64
WIRE 752 64 672 64
WIRE 848 64 752 64
WIRE 976 64 848 64
WIRE 224 80 224 64
WIRE 752 80 752 64
WIRE 848 80 848 64
WIRE 976 80 976 64
WIRE 16 96 16 64
WIRE 224 160 224 144
WIRE 352 160 352 64
WIRE 384 160 352 160
WIRE 752 160 672 160
WIRE 848 160 848 144
WIRE 752 176 752 160
WIRE 976 176 976 160
WIRE 16 192 16 176
WIRE 528 256 528 224
WIRE 752 272 752 256
FLAG 16 192 0
FLAG 528 256 0
FLAG 224 160 0
FLAG 752 272 0
FLAG 848 160 0
FLAG 976 176 0
FLAG 976 64 OUT
FLAG 16 64 IN
SYMBOL voltage 16 80 R0
WINDOW 123 0 0 Left 0
WINDOW 39 24 114 Left 2
SYMATTR SpiceLine Rser=100m
SYMATTR InstName V1
SYMATTR Value 10
SYMBOL PowerProducts\\LT3012 528 96 R0
SYMATTR InstName U1
SYMBOL cap 208 80 R0
SYMATTR InstName C1
SYMATTR Value 1.03µ
SYMATTR SpiceLine Rser=6m Lser=0.6n
SYMBOL res 736 64 R0
SYMATTR InstName R1
SYMATTR Value 750k
SYMBOL res 736 160 R0
SYMATTR InstName R2
SYMATTR Value 249k
SYMBOL cap 832 80 R0
SYMATTR InstName C2
SYMATTR Value 3.53µ
SYMATTR SpiceLine Rser=9m Lser=.2n
SYMBOL current 976 80 R0
WINDOW 123 0 0 Left 0
WINDOW 39 24 98 Left 2
SYMATTR SpiceLine load
SYMATTR InstName I1
SYMATTR Value 250m
TEXT -16 296 Left 2 !.tran 8m startup
TEXT 1512 -192 Left 2 !.meas Pin AVG -V(IN)*I(V1) FROM 7m
TEXT 1512 -168 Left 2 !.meas Pout AVG V(OUT)*I(I1) FROM 7m
TEXT 1512 -144 Left 2 !.meas Eff param (Pout/Pin)*100 FROM 7m
TEXT 1512 -112 Left 2 !.meas Vout_avg AVG V(OUT) FROM 7m
TEXT 1512 -88 Left 2 !.meas Vout_pp PP V(OUT)*1000 FROM 7m
TEXT 1512 -64 Left 2 !.meas Vin_pp PP V(IN)*1000 FROM 7m
TEXT 176 120 Left 2 ;1.5u
TEXT 872 112 Left 2 ;4.7u
